Representative_Reconfigurable_Test_Networks/selected_reconfigurable_networks/reconfigurable_case_4.m


function mpc = ../matpowerfiles/LV_fg24
mpc.version = '2';
mpc.baseMVA = 1;
mpc.bus = [
	671	3	0.0	0.0	0.0	0.0	34	1	0	0.23	1	1.1	0.9;
	672	1	0.0	0.0	0.0	0.0	34	1	0	0.23	1	1.1	0.9;
	673	1	0.001859125693368	0.000154915541484	0.0	0.0	34	1	0	0.23	1	1.1	0.9;
	674	1	0.0	0.0	0.0	0.0	34	1	0	0.23	1	1.1	0.9;
	675	1	0.0	0.0	0.0	0.0	34	1	0	0.23	1	1.1	0.9;
	676	1	0.001167147336569	9.7056549868e-05	0.0	0.0	34	1	0	0.23	1	1.1	0.9;
	677	1	0.0	0.0	0.0	0.0	34	1	0	0.23	1	1.1	0.9;
	678	1	0.0	0.0	0.0	0.0	34	1	0	0.23	1	1.1	0.9;
	679	1	0.000220195778485	2.1787094465e-05	0.0	0.0	34	1	0	0.23	1	1.1	0.9;
	680	1	0.0	0.0	0.0	0.0	34	1	0	0.23	1	1.1	0.9;
	681	1	0.001132741909667	0.000118983549396	0.0	0.0	34	1	0	0.23	1	1.1	0.9;
	682	1	0.0	0.0	0.0	0.0	34	1	0	0.23	1	1.1	0.9;
	683	1	0.0	0.0	0.0	0.0	34	1	0	0.23	1	1.1	0.9;
	684	1	0.0	0.0	0.0	0.0	34	1	0	0.23	1	1.1	0.9;
	685	1	0.0	0.0	0.0	0.0	34	1	0	0.23	1	1.1	0.9;
	686	1	0.000236898878044	2.3276541569e-05	0.0	0.0	34	1	0	0.23	1	1.1	0.9;
	687	1	0.0	0.0	0.0	0.0	34	1	0	0.23	1	1.1	0.9;
	688	1	0.000252133700034	2.1210084102e-05	0.0	0.0	34	1	0	0.23	1	1.1	0.9;
	689	1	0.0	0.0	0.0	0.0	34	1	0	0.23	1	1.1	0.9;
	690	1	0.000244195240267	2.6839574725e-05	0.0	0.0	34	1	0	0.23	1	1.1	0.9;
	691	1	0.0	0.0	0.0	0.0	34	1	0	0.23	1	1.1	0.9;
	692	1	0.000152497570628	2.332841768e-05	0.0	0.0	34	1	0	0.23	1	1.1	0.9;
	693	1	0.0	0.0	0.0	0.0	34	1	0	0.23	1	1.1	0.9;
	694	1	0.000494279784039	4.399603786e-05	0.0	0.0	34	1	0	0.23	1	1.1	0.9;
	695	1	0.0	0.0	0.0	0.0	34	1	0	0.23	1	1.1	0.9;
	696	1	0.000224718218478	2.2490518324e-05	0.0	0.0	34	1	0	0.23	1	1.1	0.9;
	697	1	0.0	0.0	0.0	0.0	34	1	0	0.23	1	1.1	0.9;
	698	1	0.000246100938209	2.9616994338e-05	0.0	0.0	34	1	0	0.23	1	1.1	0.9;
	699	1	0.0	0.0	0.0	0.0	34	1	0	0.23	1	1.1	0.9;
	700	1	0.0	0.0	0.0	0.0	34	1	0	0.23	1	1.1	0.9;
	701	1	0.0	0.0	0.0	0.0	34	1	0	0.23	1	1.1	0.9;
	702	1	0.0	0.0	0.0	0.0	34	1	0	0.23	1	1.1	0.9;
	703	1	0.000220334636259	2.0640681079e-05	0.0	0.0	34	1	0	0.23	1	1.1	0.9;
	704	1	0.0	0.0	0.0	0.0	34	1	0	0.23	1	1.1	0.9;
	705	1	0.0	0.0	0.0	0.0	34	1	0	0.23	1	1.1	0.9;
	706	1	0.0	0.0	0.0	0.0	34	1	0	0.23	1	1.1	0.9;
	707	1	0.0	0.0	0.0	0.0	34	1	0	0.23	1	1.1	0.9;
	708	1	0.000199442478941	2.27399587e-05	0.0	0.0	34	1	0	0.23	1	1.1	0.9;
	709	1	0.0	0.0	0.0	0.0	34	1	0	0.23	1	1.1	0.9;
	710	1	0.0	0.0	0.0	0.0	34	1	0	0.23	1	1.1	0.9;
	711	1	0.000231536480975	2.4238864053e-05	0.0	0.0	34	1	0	0.23	1	1.1	0.9;
	712	1	0.0	0.0	0.0	0.0	34	1	0	0.23	1	1.1	0.9;
	713	1	0.00020648053113	2.7727185653e-05	0.0	0.0	34	1	0	0.23	1	1.1	0.9;
	714	1	0.0	0.0	0.0	0.0	34	1	0	0.23	1	1.1	0.9;
	715	1	0.0	0.0	0.0	0.0	34	1	0	0.23	1	1.1	0.9;
	716	1	0.000189004033685	2.6411462754e-05	0.0	0.0	34	1	0	0.23	1	1.1	0.9;
	717	1	0.0	0.0	0.0	0.0	34	1	0	0.23	1	1.1	0.9;
	718	1	0.000248958855537	2.4423303825e-05	0.0	0.0	34	1	0	0.23	1	1.1	0.9;
	719	1	0.0	0.0	0.0	0.0	34	1	0	0.23	1	1.1	0.9;
	720	1	0.000325222500209	2.3129854933e-05	0.0	0.0	34	1	0	0.23	1	1.1	0.9;
	721	1	0.0	0.0	0.0	0.0	34	1	0	0.23	1	1.1	0.9;
	722	1	0.0	0.0	0.0	0.0	34	1	0	0.23	1	1.1	0.9;
	723	1	0.000274131331835	2.1383755829e-05	0.0	0.0	34	1	0	0.23	1	1.1	0.9;
	724	1	0.0	0.0	0.0	0.0	34	1	0	0.23	1	1.1	0.9;
	725	1	0.00022359079184	2.0227025629e-05	0.0	0.0	34	1	0	0.23	1	1.1	0.9;
	726	1	0.0	0.0	0.0	0.0	34	1	0	0.23	1	1.1	0.9;
	727	1	0.000225125516909	2.342868264e-05	0.0	0.0	34	1	0	0.23	1	1.1	0.9;
	728	1	0.0	0.0	0.0	0.0	34	1	0	0.23	1	1.1	0.9;
	729	1	0.0002045265677	1.9011856683e-05	0.0	0.0	34	1	0	0.23	1	1.1	0.9;
	730	1	0.0	0.0	0.0	0.0	34	1	0	0.23	1	1.1	0.9;
	731	1	0.0	0.0	0.0	0.0	34	1	0	0.23	1	1.1	0.9;
	732	1	0.0	0.0	0.0	0.0	34	1	0	0.23	1	1.1	0.9;
	733	1	0.000259171958264	2.5779804157e-05	0.0	0.0	34	1	0	0.23	1	1.1	0.9;
	734	1	0.0	0.0	0.0	0.0	34	1	0	0.23	1	1.1	0.9;
	735	1	0.0	0.0	0.0	0.0	34	1	0	0.23	1	1.1	0.9;
	736	1	0.0	0.0	0.0	0.0	34	1	0	0.23	1	1.1	0.9;
	737	1	0.0	0.0	0.0	0.0	34	1	0	0.23	1	1.1	0.9;
	738	1	0.0	0.0	0.0	0.0	34	1	0	0.23	1	1.1	0.9;
	739	1	0.0	0.0	0.0	0.0	34	1	0	0.23	1	1.1	0.9;
	740	1	0.003039119216942	0.000311404583037	0.0	0.0	34	1	0	0.23	1	1.1	0.9;
	741	1	0.0	0.0	0.0	0.0	34	1	0	0.23	1	1.1	0.9;
	742	1	0.000232165895297	2.9117082521e-05	0.0	0.0	34	1	0	0.23	1	1.1	0.9;
	743	1	0.0	0.0	0.0	0.0	34	1	0	0.23	1	1.1	0.9;
	744	1	0.0	0.0	0.0	0.0	34	1	0	0.23	1	1.1	0.9;
	745	1	0.0	0.0	0.0	0.0	34	1	0	0.23	1	1.1	0.9;
	746	1	0.000255955071399	2.6681541689e-05	0.0	0.0	34	1	0	0.23	1	1.1	0.9;
	747	1	0.0	0.0	0.0	0.0	34	1	0	0.23	1	1.1	0.9;
	748	1	0.0	0.0	0.0	0.0	34	1	0	0.23	1	1.1	0.9;
	749	1	0.000208142322443	2.0803833865e-05	0.0	0.0	34	1	0	0.23	1	1.1	0.9;
	750	1	0.0	0.0	0.0	0.0	34	1	0	0.23	1	1.1	0.9;
	751	1	0.00027692183074	2.7495618866e-05	0.0	0.0	34	1	0	0.23	1	1.1	0.9;
	752	1	0.0	0.0	0.0	0.0	34	1	0	0.23	1	1.1	0.9;
	753	1	0.000243647909802	2.0025731501e-05	0.0	0.0	34	1	0	0.23	1	1.1	0.9;
	754	1	0.0	0.0	0.0	0.0	34	1	0	0.23	1	1.1	0.9;
	755	1	0.000206688828903	2.589510364e-05	0.0	0.0	34	1	0	0.23	1	1.1	0.9;
	756	1	0.0	0.0	0.0	0.0	34	1	0	0.23	1	1.1	0.9;
	757	1	0.000257210140095	2.4382406895e-05	0.0	0.0	34	1	0	0.23	1	1.1	0.9;
	781	3	0.0	0.0	0.0	0.0	37	1	0	0.23	1	1.1	0.9;
	782	1	0.0	0.0	0.0	0.0	37	1	0	0.23	1	1.1	0.9;
	783	1	0.0	0.0	0.0	0.0	37	1	0	0.23	1	1.1	0.9;
	784	1	0.0	0.0	0.0	0.0	37	1	0	0.23	1	1.1	0.9;
	785	1	0.004385100846998	0.000471050814816	0.0	0.0	37	1	0	0.23	1	1.1	0.9;
	786	1	0.0	0.0	0.0	0.0	37	1	0	0.23	1	1.1	0.9;
	787	1	0.0	0.0	0.0	0.0	37	1	0	0.23	1	1.1	0.9;
	788	1	0.0002017592864	2.6340279228e-05	0.0	0.0	37	1	0	0.23	1	1.1	0.9;
	789	1	0.0	0.0	0.0	0.0	37	1	0	0.23	1	1.1	0.9;
	790	1	0.0	0.0	0.0	0.0	37	1	0	0.23	1	1.1	0.9;
	2950	3	0.0	0.0	0.0	0.0	207	1	0	0.23	1	1.1	0.9;
	2951	1	0.0	0.0	0.0	0.0	207	1	0	0.23	1	1.1	0.9;
	2952	1	0.0	0.0	0.0	0.0	207	1	0	0.23	1	1.1	0.9;
	2953	1	0.0	0.0	0.0	0.0	207	1	0	0.23	1	1.1	0.9;
	2954	1	0.0	0.0	0.0	0.0	207	1	0	0.23	1	1.1	0.9;
	2955	1	0.0	0.0	0.0	0.0	207	1	0	0.23	1	1.1	0.9;
	2956	1	0.000236885932067	2.4209118909e-05	0.0	0.0	207	1	0	0.23	1	1.1	0.9;
	2957	1	0.0	0.0	0.0	0.0	207	1	0	0.23	1	1.1	0.9;
	2958	1	0.0	0.0	0.0	0.0	207	1	0	0.23	1	1.1	0.9;
	2959	1	0.000150607389606	1.9679985763e-05	0.0	0.0	207	1	0	0.23	1	1.1	0.9;
	2960	1	0.0	0.0	0.0	0.0	207	1	0	0.23	1	1.1	0.9;
	2961	1	0.000289550492988	2.0190462664e-05	0.0	0.0	207	1	0	0.23	1	1.1	0.9;
	2962	1	0.0	0.0	0.0	0.0	207	1	0	0.23	1	1.1	0.9;
	2963	1	0.000225382151235	1.3881717281e-05	0.0	0.0	207	1	0	0.23	1	1.1	0.9;
	2964	1	0.0	0.0	0.0	0.0	207	1	0	0.23	1	1.1	0.9;
	2965	1	0.000196930154805	2.1114505891e-05	0.0	0.0	207	1	0	0.23	1	1.1	0.9;
	2966	1	0.0	0.0	0.0	0.0	207	1	0	0.23	1	1.1	0.9;
	2967	1	0.0	0.0	0.0	0.0	207	1	0	0.23	1	1.1	0.9;
	2968	1	0.000223612814954	2.541494124e-05	0.0	0.0	207	1	0	0.23	1	1.1	0.9;
	2969	1	0.0	0.0	0.0	0.0	207	1	0	0.23	1	1.1	0.9;
	2970	1	0.000253726985809	2.4110232752e-05	0.0	0.0	207	1	0	0.23	1	1.1	0.9;
	2971	1	0.0	0.0	0.0	0.0	207	1	0	0.23	1	1.1	0.9;
	2972	1	0.0	0.0	0.0	0.0	207	1	0	0.23	1	1.1	0.9;
	2973	1	0.0	0.0	0.0	0.0	207	1	0	0.23	1	1.1	0.9;
	2974	1	0.0	0.0	0.0	0.0	207	1	0	0.23	1	1.1	0.9;
	2975	1	0.005464706510327999	0.000593036419022	0.0	0.0	207	1	0	0.23	1	1.1	0.9;
	2976	1	0.0	0.0	0.0	0.0	207	1	0	0.23	1	1.1	0.9;
	2977	1	0.003705653722359	0.000326275111577	0.0	0.0	207	1	0	0.23	1	1.1	0.9;
	2978	1	0.0	0.0	0.0	0.0	207	1	0	0.23	1	1.1	0.9;
	2979	1	0.002808966026567	0.000244693098725	0.0	0.0	207	1	0	0.23	1	1.1	0.9;
	2980	1	0.0	0.0	0.0	0.0	207	1	0	0.23	1	1.1	0.9;
	2981	1	0.0	0.0	0.0	0.0	207	1	0	0.23	1	1.1	0.9;
	2982	1	0.003924466644376999	0.000392419605671	0.0	0.0	207	1	0	0.23	1	1.1	0.9;
	2983	1	0.0	0.0	0.0	0.0	207	1	0	0.23	1	1.1	0.9;
	2984	1	0.0	0.0	0.0	0.0	207	1	0	0.23	1	1.1	0.9;
	2985	1	0.0	0.0	0.0	0.0	207	1	0	0.23	1	1.1	0.9;
	2986	1	0.000284960243331	2.7229163737e-05	0.0	0.0	207	1	0	0.23	1	1.1	0.9;
	2987	1	0.0	0.0	0.0	0.0	207	1	0	0.23	1	1.1	0.9;
	2988	1	0.0	0.0	0.0	0.0	207	1	0	0.23	1	1.1	0.9;
	2989	1	0.000190395444894	1.1196586427e-05	0.0	0.0	207	1	0	0.23	1	1.1	0.9;
	2990	1	0.0	0.0	0.0	0.0	207	1	0	0.23	1	1.1	0.9;
];

mpc.gen = [
	671	0.0	0.0	Inf	-Inf	1	1	1	Inf	-Inf;
	781	0.0	0.0	Inf	-Inf	1	1	1	Inf	-Inf;
	2950	0.0	0.0	Inf	-Inf	1	1	1	Inf	-Inf;
];

mpc.gencost = [
	2	0	0	2	1	0;
	2	0	0	2	1	0;
	2	0	0	2	1	0;
];

mpc.branch = [
	671	672	0.35604765311909264	0.1310671077504726	0	0	0	0	0	0	1	-89.9	89.9;
	672	673	0.00021739130434782607	2.835538752362949e-05	0	0	0	0	0	0	1	-89.9	89.9;
	672	674	0.16150255198487712	0.05945179584120983	0	0	0	0	0	0	1	-89.9	89.9;
	674	675	0.04074652173913044	0.005274102079395085	0	0	0	0	0	0	1	-89.9	89.9;
	675	676	0.00021739130434782607	2.835538752362949e-05	0	0	0	0	0	0	1	-89.9	89.9;
	675	677	0.2580613043478261	0.03340264650283554	0	0	0	0	0	0	1	-89.9	89.9;
	677	678	1.173156899810964	0.04933837429111531	0	0	0	0	0	0	1	-89.9	89.9;
	678	679	0.00021739130434782607	2.835538752362949e-05	0	0	0	0	0	0	1	-89.9	89.9;
	677	680	0.04074652173913044	0.005274102079395085	0	0	0	0	0	0	1	-89.9	89.9;
	680	681	0.00021739130434782607	2.835538752362949e-05	0	0	0	0	0	0	1	-89.9	89.9;
	674	682	0.1833272211720227	0.06748582230623819	0	0	0	0	0	0	1	-89.9	89.9;
	682	683	0.5568691304347827	0.07207939508506615	0	0	0	0	0	0	1	-89.9	89.9;
	683	684	0.7281663516068052	0.030623818525519847	0	0	0	0	0	0	1	-89.9	89.9;
	684	685	0.6068052930056711	0.025519848771266538	0	0	0	0	0	0	1	-89.9	89.9;
	685	686	0.00021739130434782607	2.835538752362949e-05	0	0	0	0	0	0	1	-89.9	89.9;
	684	687	0.04045368620037807	0.0017013232514177692	0	0	0	0	0	0	1	-89.9	89.9;
	687	688	0.00021739130434782607	2.835538752362949e-05	0	0	0	0	0	0	1	-89.9	89.9;
	687	689	0.7281663516068052	0.030623818525519847	0	0	0	0	0	0	1	-89.9	89.9;
	689	690	0.00021739130434782607	2.835538752362949e-05	0	0	0	0	0	0	1	-89.9	89.9;
	683	691	0.04045368620037807	0.0017013232514177692	0	0	0	0	0	0	1	-89.9	89.9;
	691	692	0.00021739130434782607	2.835538752362949e-05	0	0	0	0	0	0	1	-89.9	89.9;
	683	693	0.025330812854442344	0.0018336483931947068	0	0	0	0	0	0	1	-89.9	89.9;
	693	694	0.00021739130434782607	2.835538752362949e-05	0	0	0	0	0	0	1	-89.9	89.9;
	682	695	0.7686200378071834	0.03232514177693761	0	0	0	0	0	0	1	-89.9	89.9;
	695	696	0.00021739130434782607	2.835538752362949e-05	0	0	0	0	0	0	1	-89.9	89.9;
	682	697	0.6877126654064273	0.02892249527410208	0	0	0	0	0	0	1	-89.9	89.9;
	697	698	0.00021739130434782607	2.835538752362949e-05	0	0	0	0	0	0	1	-89.9	89.9;
	682	699	0.09602854442344044	0.03534971644612476	0	0	0	0	0	0	1	-89.9	89.9;
	699	700	0.09602854442344044	0.03534971644612476	0	0	0	0	0	0	1	-89.9	89.9;
	700	701	0.00021739130434782607	2.835538752362949e-05	0	0	0	0	0	0	1	-89.9	89.9;
	700	702	0.6877126654064273	0.02892249527410208	0	0	0	0	0	0	1	-89.9	89.9;
	702	703	0.00021739130434782607	2.835538752362949e-05	0	0	0	0	0	0	1	-89.9	89.9;
	700	704	0.14840775047258978	0.05463137996219282	0	0	0	0	0	0	1	-89.9	89.9;
	704	705	0.13531294896030244	0.049810964083175806	0	0	0	0	0	0	1	-89.9	89.9;
	705	706	0.08090737240075614	0.0034026465028355385	0	0	0	0	0	0	1	-89.9	89.9;
	706	707	0.44499054820415873	0.018714555765595463	0	0	0	0	0	0	1	-89.9	89.9;
	707	708	0.00021739130434782607	2.835538752362949e-05	0	0	0	0	0	0	1	-89.9	89.9;
	706	709	0.32362948960302457	0.013610586011342154	0	0	0	0	0	0	1	-89.9	89.9;
	709	710	0.08090737240075614	0.0034026465028355385	0	0	0	0	0	0	1	-89.9	89.9;
	710	711	0.00021739130434782607	2.835538752362949e-05	0	0	0	0	0	0	1	-89.9	89.9;
	705	712	0.8495274102079396	0.03572778827977315	0	0	0	0	0	0	1	-89.9	89.9;
	712	713	0.00021739130434782607	2.835538752362949e-05	0	0	0	0	0	0	1	-89.9	89.9;
	705	714	0.6877126654064273	0.02892249527410208	0	0	0	0	0	0	1	-89.9	89.9;
	714	715	0.44499054820415873	0.018714555765595463	0	0	0	0	0	0	1	-89.9	89.9;
	715	716	0.00021739130434782607	2.835538752362949e-05	0	0	0	0	0	0	1	-89.9	89.9;
	714	717	0.4854442344045369	0.020415879017013232	0	0	0	0	0	0	1	-89.9	89.9;
	717	718	0.00021739130434782607	2.835538752362949e-05	0	0	0	0	0	0	1	-89.9	89.9;
	704	719	0.8090737240075615	0.034026465028355386	0	0	0	0	0	0	1	-89.9	89.9;
	719	720	0.00021739130434782607	2.835538752362949e-05	0	0	0	0	0	0	1	-89.9	89.9;
	704	721	0.6472589792060491	0.027221172022684308	0	0	0	0	0	0	1	-89.9	89.9;
	721	722	0.16181474480151228	0.006805293005671077	0	0	0	0	0	0	1	-89.9	89.9;
	722	723	0.00021739130434782607	2.835538752362949e-05	0	0	0	0	0	0	1	-89.9	89.9;
	704	724	0.4854442344045369	0.020415879017013232	0	0	0	0	0	0	1	-89.9	89.9;
	724	725	0.00021739130434782607	2.835538752362949e-05	0	0	0	0	0	0	1	-89.9	89.9;
	704	726	0.40453686200378075	0.017013232514177693	0	0	0	0	0	0	1	-89.9	89.9;
	726	727	0.00021739130434782607	2.835538752362949e-05	0	0	0	0	0	0	1	-89.9	89.9;
	700	728	1.011342155009452	0.04253308128544423	0	0	0	0	0	0	1	-89.9	89.9;
	728	729	0.00021739130434782607	2.835538752362949e-05	0	0	0	0	0	0	1	-89.9	89.9;
	700	730	0.24007136105860113	0.0883742911153119	0	0	0	0	0	0	1	-89.9	89.9;
	730	731	0.00021739130434782607	2.835538752362949e-05	0	0	0	0	0	0	1	-89.9	89.9;
	730	732	0.6068052930056711	0.025519848771266538	0	0	0	0	0	0	1	-89.9	89.9;
	732	733	0.00021739130434782607	2.835538752362949e-05	0	0	0	0	0	0	1	-89.9	89.9;
	730	734	0.11785321361058601	0.04338374291115312	0	0	0	0	0	0	1	-89.9	89.9;
	734	735	0.078568809073724	0.028922495274102077	0	0	0	0	0	0	1	-89.9	89.9;
	735	736	0.004364933837429111	0.0016068052930056712	0	0	0	0	0	0	1	-89.9	89.9;
	736	737	0.00021739130434782607	2.835538752362949e-05	0	0	0	0	0	0	1	-89.9	89.9;
	736	738	0.078568809073724	0.028922495274102077	0	0	0	0	0	0	1	-89.9	89.9;
	735	739	0.08149304347826088	0.01054820415879017	0	0	0	0	0	0	1	-89.9	89.9;
	739	740	0.00021739130434782607	2.835538752362949e-05	0	0	0	0	0	0	1	-89.9	89.9;
	730	741	0.9304347826086956	0.03913043478260869	0	0	0	0	0	0	1	-89.9	89.9;
	741	742	0.00021739130434782607	2.835538752362949e-05	0	0	0	0	0	0	1	-89.9	89.9;
	730	743	0.5976156521739131	0.07735349716446124	0	0	0	0	0	0	1	-89.9	89.9;
	743	744	0.3803008695652174	0.04922495274102079	0	0	0	0	0	0	1	-89.9	89.9;
	744	745	0.40453686200378075	0.017013232514177693	0	0	0	0	0	0	1	-89.9	89.9;
	745	746	0.00021739130434782607	2.835538752362949e-05	0	0	0	0	0	0	1	-89.9	89.9;
	744	747	0.3640831758034026	0.015311909262759923	0	0	0	0	0	0	1	-89.9	89.9;
	747	748	0.7686200378071834	0.03232514177693761	0	0	0	0	0	0	1	-89.9	89.9;
	748	749	0.00021739130434782607	2.835538752362949e-05	0	0	0	0	0	0	1	-89.9	89.9;
	747	750	0.16181474480151228	0.006805293005671077	0	0	0	0	0	0	1	-89.9	89.9;
	750	751	0.00021739130434782607	2.835538752362949e-05	0	0	0	0	0	0	1	-89.9	89.9;
	743	752	0.44499054820415873	0.018714555765595463	0	0	0	0	0	0	1	-89.9	89.9;
	752	753	0.00021739130434782607	2.835538752362949e-05	0	0	0	0	0	0	1	-89.9	89.9;
	743	754	0.4854442344045369	0.020415879017013232	0	0	0	0	0	0	1	-89.9	89.9;
	754	755	0.00021739130434782607	2.835538752362949e-05	0	0	0	0	0	0	1	-89.9	89.9;
	700	756	1.173156899810964	0.04933837429111531	0	0	0	0	0	0	1	-89.9	89.9;
	756	757	0.00021739130434782607	2.835538752362949e-05	0	0	0	0	0	0	1	-89.9	89.9;
	781	782	0.05547448015122874	0.004015689981096408	0	0	0	0	0	0	1	-89.9	89.9;
	782	783	0.4323969754253308	0.03130037807183365	0	0	0	0	0	0	1	-89.9	89.9;
	783	784	0.09602854442344044	0.03534971644612476	0	0	0	0	0	0	1	-89.9	89.9;
	784	785	0.00021739130434782607	2.835538752362949e-05	0	0	0	0	0	0	1	-89.9	89.9;
	784	786	0.21999266540642723	0.08098298676748583	0	0	0	0	0	0	1	-89.9	89.9;
	786	787	0.029157758034026465	0.010733459357277883	0	0	0	0	0	0	1	-89.9	89.9;
	787	788	0.00021739130434782607	2.835538752362949e-05	0	0	0	0	0	0	1	-89.9	89.9;
	787	789	0.07433482325141776	0.02736389413988658	0	0	0	0	0	0	1	-89.9	89.9;
	789	790	0.017459735349716444	0.006427221172022685	0	0	0	0	0	0	1	-89.9	89.9;
	2950	2951	0.04801427221172022	0.01767485822306238	0	0	0	0	0	0	1	-89.9	89.9;
	2951	2952	0.3491947069943289	0.1285444234404537	0	0	0	0	0	0	1	-89.9	89.9;
	2952	2953	0.06547400756143668	0.024102079395085067	0	0	0	0	0	0	1	-89.9	89.9;
	2953	2954	0.09166361058601134	0.033742911153119094	0	0	0	0	0	0	1	-89.9	89.9;
	2954	2955	0.017160680529300566	0.003440453686200378	0	0	0	0	0	0	1	-89.9	89.9;
	2955	2956	0.00021739130434782607	2.835538752362949e-05	0	0	0	0	0	0	1	-89.9	89.9;
	2955	2957	0.017160680529300566	0.003440453686200378	0	0	0	0	0	0	1	-89.9	89.9;
	2954	2958	0.18018714555765597	0.03612476370510397	0	0	0	0	0	0	1	-89.9	89.9;
	2958	2959	0.00021739130434782607	2.835538752362949e-05	0	0	0	0	0	0	1	-89.9	89.9;
	2958	2960	0.06864272211720227	0.013761814744801513	0	0	0	0	0	0	1	-89.9	89.9;
	2960	2961	0.00021739130434782607	2.835538752362949e-05	0	0	0	0	0	0	1	-89.9	89.9;
	2960	2962	0.08580340264650284	0.01720226843100189	0	0	0	0	0	0	1	-89.9	89.9;
	2962	2963	0.00021739130434782607	2.835538752362949e-05	0	0	0	0	0	0	1	-89.9	89.9;
	2962	2964	0.08580340264650284	0.01720226843100189	0	0	0	0	0	0	1	-89.9	89.9;
	2964	2965	0.00021739130434782607	2.835538752362949e-05	0	0	0	0	0	0	1	-89.9	89.9;
	2964	2966	0.01869754253308128	0.007122873345935727	0	0	0	0	0	0	1	-89.9	89.9;
	2964	2967	0.01861814744801512	0.007092627599243857	0	0	0	0	0	0	1	-89.9	89.9;
	2967	2968	0.00021739130434782607	2.835538752362949e-05	0	0	0	0	0	0	1	-89.9	89.9;
	2964	2969	0.07722306238185254	0.0154820415879017	0	0	0	0	0	0	1	-89.9	89.9;
	2969	2970	0.00021739130434782607	2.835538752362949e-05	0	0	0	0	0	0	1	-89.9	89.9;
	2969	2971	0.008580340264650283	0.001720226843100189	0	0	0	0	0	0	1	-89.9	89.9;
	2971	2972	0.03432136105860113	0.006880907372400756	0	0	0	0	0	0	1	-89.9	89.9;
	2971	2973	0.08293374291115312	0.030529300567107752	0	0	0	0	0	0	1	-89.9	89.9;
	2973	2974	0.05674413988657845	0.020888468809073725	0	0	0	0	0	0	1	-89.9	89.9;
	2974	2975	0.00021739130434782607	2.835538752362949e-05	0	0	0	0	0	0	1	-89.9	89.9;
	2974	2976	0.06547400756143668	0.024102079395085067	0	0	0	0	0	0	1	-89.9	89.9;
	2976	2977	0.00021739130434782607	2.835538752362949e-05	0	0	0	0	0	0	1	-89.9	89.9;
	2976	2978	0.10039347826086956	0.03695652173913044	0	0	0	0	0	0	1	-89.9	89.9;
	2978	2979	0.00021739130434782607	2.835538752362949e-05	0	0	0	0	0	0	1	-89.9	89.9;
	2978	2980	0.06547400756143668	0.024102079395085067	0	0	0	0	0	0	1	-89.9	89.9;
	2973	2981	0.12658308128544424	0.04659735349716446	0	0	0	0	0	0	1	-89.9	89.9;
	2981	2982	0.00021739130434782607	2.835538752362949e-05	0	0	0	0	0	0	1	-89.9	89.9;
	2981	2983	0.06983894139886578	0.02570888468809074	0	0	0	0	0	0	1	-89.9	89.9;
	2962	2984	0.018062381852551983	0.006880907372400756	0	0	0	0	0	0	1	-89.9	89.9;
	2962	2985	0.019213610586011343	0.007319470699432892	0	0	0	0	0	0	1	-89.9	89.9;
	2985	2986	0.00021739130434782607	2.835538752362949e-05	0	0	0	0	0	0	1	-89.9	89.9;
	2960	2987	0.0203648393194707	0.007758034026465028	0	0	0	0	0	0	1	-89.9	89.9;
	2960	2988	0.019689981096408314	0.00750094517958412	0	0	0	0	0	0	1	-89.9	89.9;
	2988	2989	0.00021739130434782607	2.835538752362949e-05	0	0	0	0	0	0	1	-89.9	89.9;
	2953	2990	0.008729867674858222	0.0032136105860113423	0	0	0	0	0	0	1	-89.9	89.9;
	738	2990	0.0001890359168241966	1.8903591682419658e-05	0	0	0	0	0	0	1	-89.9	89.9;
	2980	790	0.0001890359168241966	1.8903591682419658e-05	0	0	0	0	0	0	1	-89.9	89.9;
];

% adds current ratings, is_switch boolean, and default switch state to the branch matrix
%column_names%	c_rating_a	is_switch	z_branch_start	branch_id
mpc.branch_extensions = [
	0.07015	1	1	637;
	0.0276	0	1	638;
	0.07015	0	1	639;
	0.0345	0	1	640;
	0.0276	0	1	641;
	0.0345	0	1	642;
	0.023000000000000003	0	1	643;
	0.0276	0	1	644;
	0.0345	0	1	645;
	0.0276	0	1	646;
	0.07015	0	1	647;
	0.0345	0	1	648;
	0.01725	0	1	649;
	0.01725	0	1	650;
	0.0276	0	1	651;
	0.023000000000000003	0	1	652;
	0.0276	0	1	653;
	0.023000000000000003	0	1	654;
	0.0276	0	1	655;
	0.023000000000000003	0	1	656;
	0.0276	0	1	657;
	0.023000000000000003	0	1	658;
	0.0276	0	1	659;
	0.023000000000000003	0	1	660;
	0.0276	0	1	661;
	0.023000000000000003	0	1	662;
	0.0276	0	1	663;
	0.07015	0	1	664;
	0.07015	0	1	665;
	0.0276	0	1	666;
	0.023000000000000003	0	1	667;
	0.0276	0	1	668;
	0.07015	0	1	669;
	0.07015	0	1	670;
	0.023000000000000003	0	1	671;
	0.023000000000000003	0	1	672;
	0.0276	0	1	673;
	0.023000000000000003	0	1	674;
	0.023000000000000003	0	1	675;
	0.0276	0	1	676;
	0.023000000000000003	0	1	677;
	0.0276	0	1	678;
	0.01725	0	1	679;
	0.023000000000000003	0	1	680;
	0.0276	0	1	681;
	0.023000000000000003	0	1	682;
	0.0276	0	1	683;
	0.023000000000000003	0	1	684;
	0.0276	0	1	685;
	0.023000000000000003	0	1	686;
	0.023000000000000003	0	1	687;
	0.0276	0	1	688;
	0.023000000000000003	0	1	689;
	0.0276	0	1	690;
	0.023000000000000003	0	1	691;
	0.0276	0	1	692;
	0.023000000000000003	0	1	693;
	0.0276	0	1	694;
	0.07015	0	1	695;
	0.0276	0	1	696;
	0.023000000000000003	0	1	697;
	0.0276	0	1	698;
	0.07015	0	1	699;
	0.07015	0	1	700;
	0.07015	0	1	701;
	0.0276	0	1	702;
	0.07015	0	1	703;
	0.0345	0	1	704;
	0.0276	0	1	705;
	0.023000000000000003	0	1	706;
	0.0276	0	1	707;
	0.0345	0	1	708;
	0.0345	0	1	709;
	0.023000000000000003	0	1	710;
	0.0276	0	1	711;
	0.023000000000000003	0	1	712;
	0.023000000000000003	0	1	713;
	0.0276	0	1	714;
	0.023000000000000003	0	1	715;
	0.0276	0	1	716;
	0.01725	0	1	717;
	0.0276	0	1	718;
	0.023000000000000003	0	1	719;
	0.0276	0	1	720;
	0.023000000000000003	0	1	721;
	0.0276	0	1	722;
	0.023000000000000003	1	1	744;
	0.023000000000000003	0	1	745;
	0.07015	0	1	746;
	0.0276	0	1	747;
	0.07015	0	1	748;
	0.07015	0	1	749;
	0.0276	0	1	750;
	0.07015	0	1	751;
	0.07015	0	1	752;
	0.07015	1	1	2743;
	0.07015	0	1	2744;
	0.07015	0	1	2745;
	0.07015	0	1	2746;
	0.0368	0	1	2747;
	0.0276	0	1	2748;
	0.0368	0	1	2749;
	0.0368	0	1	2750;
	0.0276	0	1	2751;
	0.0368	0	1	2752;
	0.0276	0	1	2753;
	0.0368	0	1	2754;
	0.0276	0	1	2755;
	0.0368	0	1	2756;
	0.0276	0	1	2757;
	0.046000000000000006	0	1	2758;
	0.046000000000000006	0	1	2759;
	0.0276	0	1	2760;
	0.0368	0	1	2761;
	0.0276	0	1	2762;
	0.0368	0	1	2763;
	0.0368	0	1	2764;
	0.07015	0	1	2765;
	0.07015	0	1	2766;
	0.0276	0	1	2767;
	0.07015	0	1	2768;
	0.0276	0	1	2769;
	0.07015	0	1	2770;
	0.0276	0	1	2771;
	0.07015	0	1	2772;
	0.07015	0	1	2773;
	0.0276	0	1	2774;
	0.07015	0	1	2775;
	0.046000000000000006	0	1	2776;
	0.046000000000000006	0	1	2777;
	0.0276	0	1	2778;
	0.046000000000000006	0	1	2779;
	0.046000000000000006	0	1	2780;
	0.0276	0	1	2781;
	0.07015	0	1	2782;
	2.3000000000000003	1	0	3585;
	2.3000000000000003	1	0	3588;
];